Circuit: * C:\Users\rochi\Google Drive\Materias\Teoría de circuitos\TPs\TP1\TC_TP1\ej 2\simulacion filtro pasabajos rc 64k.asc

Direct Newton iteration for .op point succeeded.

Date: Wed Aug 08 13:49:19 2018
Total elapsed time: 0.077 seconds.

tnom = 27
temp = 27
method = modified trap
totiter = 2907
traniter = 2904
tranpoints = 1453
accept = 1372
rejected = 81
matrix size = 2
fillins = 0
solver = Normal
Matrix Compiler1: 54 bytes object code size  0.1/0.1/[0.0]
Matrix Compiler2:      10 opcodes  0.1/[0.0]/0.1

