Circuit: * C:\Users\mlste\Documents\ITBA\6 Cuatrimestre\TC\TC_TP1\ej 2\simulacion filtro pasabajos rc 64k.asc

Direct Newton iteration for .op point succeeded.
.step run=1
