Circuit: * C:\Users\mlste\Documents\ITBA\6 Cuatrimestre\TC\TC_TP1\ej 2\simulacion filtro pasabajos rc 64k.asc


Date: Thu Aug 09 19:50:28 2018
Total elapsed time: 0.059 seconds.

tnom = 27
temp = 27
method = trap
totiter = 0
traniter = 0
tranpoints = 0
accept = 0
rejected = 0
matrix size = 2
fillins = 0
solver = Normal

