Circuit: * C:\Users\rochi\Google Drive\Materias\Teoría de circuitos\TPs\TP1\TC_TP1\ej 1\simulacion.asc


Date: Wed Aug 15 15:39:19 2018
Total elapsed time: 0.237 seconds.

tnom = 27
temp = 27
method = trap
totiter = 0
traniter = 0
tranpoints = 0
accept = 0
rejected = 0
matrix size = 5
fillins = 2
solver = Normal

